!- Linux Line endings

  Version,8.8;

  SimulationControl,
    No,                      !- Do Zone Sizing Calculation
    No,                      !- Do System Sizing Calculation
    No,                      !- Do Plant Sizing Calculation
    No,                      !- Run Simulation for Sizing Periods
    Yes;                     !- Run Simulation for Weather File Run Periods

  Building,
    Building,                !- Name
    0.0,                     !- North Axis {deg}
    Suburbs,                 !- Terrain
    0.04,                    !- Loads Convergence Tolerance Value
    0.4,                     !- Temperature Convergence Tolerance Value {deltaC}
    FullExterior,            !- Solar Distribution
    25,                      !- Maximum Number of Warmup Days
    6;                       !- Minimum Number of Warmup Days

  ShadowCalculation,
    AverageOverDaysInFrequency,  !- Calculation Method
    20,                      !- Calculation Frequency
    15000,                   !- Maximum Figures in Shadow Overlap Calculations
    SutherlandHodgman,       !- Polygon Clipping Algorithm
    SimpleSkyDiffuseModeling;!- Sky Diffuse Modeling Algorithm

  SurfaceConvectionAlgorithm:Inside,TARP;

  SurfaceConvectionAlgorithm:Outside,DOE-2;

  HeatBalanceAlgorithm,ConductionTransferFunction,2000.0;

  ZoneCapacitanceMultiplier:ResearchSpecial,
    Multiplier,              !- Name
    ,                        !- Zone or ZoneList Name
    1.0,                     !- Temperature Capacity Multiplier
    1.0,                     !- Humidity Capacity Multiplier
    1.0,                     !- Carbon Dioxide Capacity Multiplier
    1.0;                     !- Generic Contaminant Capacity Multiplier

  Timestep,2;

  ConvergenceLimits,
    1,                       !- Minimum System Timestep {minutes}
    25;                      !- Maximum HVAC Iterations

  Site:Location,
    Talcahuano.Op1 (01-01:31-12)  (01-01:31-12),  !- Name
    -36.77,                  !- Latitude {deg}
    -73.07,                  !- Longitude {deg}
    -4.0,                    !- Time Zone {hr}
    16.0;                    !- Elevation {m}

  RunPeriod,
    Talcahuano.Op1 (01-01:31-12),  !- Name
    1,                       !- Begin Month
    1,                       !- Begin Day of Month
    12,                      !- End Month
    31,                      !- End Day of Month
    UseWeatherFile,          !- Day of Week for Start Day
    No,                      !- Use Weather File Holidays and Special Days
    No,                      !- Use Weather File Daylight Saving Period
    Yes,                     !- Apply Weekend Holiday Rule
    Yes,                     !- Use Weather File Rain Indicators
    Yes,                     !- Use Weather File Snow Indicators
    1;                       !- Number of Times Runperiod to be Repeated

  RunPeriodControl:DaylightSavingTime,
    2nd Saturday in October, !- Start Date
    2nd Saturday in March;   !- End Date

  Site:GroundTemperature:BuildingSurface,14.0,14.0,14.0,14.0,14.0,14.0,14.0,14.0,14.0,14.0,14.0,14.0;

  Site:GroundTemperature:FCfactorMethod,16.22,16.49,15.89,14.99,12.69,10.94,9.79,9.47,10.13,11.53,13.37,15.05;

  Site:GroundTemperature:Shallow,14.0,14.0,14.0,14.0,14.0,14.0,14.0,14.0,14.0,14.0,14.0,14.0;

  Site:GroundTemperature:Deep,14.0,14.0,14.0,14.0,14.0,14.0,14.0,14.0,14.0,14.0,14.0,14.0;

  Site:GroundReflectance,0.2,0.2,0.2,0.2,0.2,0.2,0.2,0.2,0.2,0.2,0.2,0.2;

  Site:GroundReflectance:SnowModifier,
    1.0,                     !- Ground Reflected Solar Modifier
    1.0;                     !- Daylighting Ground Reflected Solar Modifier

  ScheduleTypeLimits,
    Any Number;              !- Name

  ScheduleTypeLimits,
    Fraction,                !- Name
    0.0,                     !- Lower Limit Value
    1.0,                     !- Upper Limit Value
    CONTINUOUS;              !- Numeric Type

  ScheduleTypeLimits,
    Temperature,             !- Name
    -60,                     !- Lower Limit Value
    200,                     !- Upper Limit Value
    CONTINUOUS;              !- Numeric Type

  ScheduleTypeLimits,
    Control Type,            !- Name
    0,                       !- Lower Limit Value
    4,                       !- Upper Limit Value
    DISCRETE;                !- Numeric Type

  ScheduleTypeLimits,
    On/Off,                  !- Name
    0,                       !- Lower Limit Value
    1,                       !- Upper Limit Value
    DISCRETE;                !- Numeric Type

  Schedule:Day:Hourly,
    0,                       !- Name
    Any Number,              !- Schedule Type Limits Name
    0.0,                     !- Hour 1
    0.0,                     !- Hour 2
    0.0,                     !- Hour 3
    0.0,                     !- Hour 4
    0.0,                     !- Hour 5
    0.0,                     !- Hour 6
    0.0,                     !- Hour 7
    0.0,                     !- Hour 8
    0.0,                     !- Hour 9
    0.0,                     !- Hour 10
    0.0,                     !- Hour 11
    0.0,                     !- Hour 12
    0.0,                     !- Hour 13
    0.0,                     !- Hour 14
    0.0,                     !- Hour 15
    0.0,                     !- Hour 16
    0.0,                     !- Hour 17
    0.0,                     !- Hour 18
    0.0,                     !- Hour 19
    0.0,                     !- Hour 20
    0.0,                     !- Hour 21
    0.0,                     !- Hour 22
    0.0,                     !- Hour 23
    0.0;                     !- Hour 24

  Schedule:Day:Hourly,
    50,                      !- Name
    Any Number,              !- Schedule Type Limits Name
    50.0,                    !- Hour 1
    50.0,                    !- Hour 2
    50.0,                    !- Hour 3
    50.0,                    !- Hour 4
    50.0,                    !- Hour 5
    50.0,                    !- Hour 6
    50.0,                    !- Hour 7
    50.0,                    !- Hour 8
    50.0,                    !- Hour 9
    50.0,                    !- Hour 10
    50.0,                    !- Hour 11
    50.0,                    !- Hour 12
    50.0,                    !- Hour 13
    50.0,                    !- Hour 14
    50.0,                    !- Hour 15
    50.0,                    !- Hour 16
    50.0,                    !- Hour 17
    50.0,                    !- Hour 18
    50.0,                    !- Hour 19
    50.0,                    !- Hour 20
    50.0,                    !- Hour 21
    50.0,                    !- Hour 22
    50.0,                    !- Hour 23
    50.0;                    !- Hour 24

  Schedule:Day:Hourly,
    Off,                     !- Name
    Fraction,                !- Schedule Type Limits Name
    0.0,                     !- Hour 1
    0.0,                     !- Hour 2
    0.0,                     !- Hour 3
    0.0,                     !- Hour 4
    0.0,                     !- Hour 5
    0.0,                     !- Hour 6
    0.0,                     !- Hour 7
    0.0,                     !- Hour 8
    0.0,                     !- Hour 9
    0.0,                     !- Hour 10
    0.0,                     !- Hour 11
    0.0,                     !- Hour 12
    0.0,                     !- Hour 13
    0.0,                     !- Hour 14
    0.0,                     !- Hour 15
    0.0,                     !- Hour 16
    0.0,                     !- Hour 17
    0.0,                     !- Hour 18
    0.0,                     !- Hour 19
    0.0,                     !- Hour 20
    0.0,                     !- Hour 21
    0.0,                     !- Hour 22
    0.0,                     !- Hour 23
    0.0;                     !- Hour 24

  Schedule:Day:Hourly,
    Summer Control Type Day Sch,  !- Name
    Control Type,            !- Schedule Type Limits Name
    4.0,                     !- Hour 1
    4.0,                     !- Hour 2
    4.0,                     !- Hour 3
    4.0,                     !- Hour 4
    4.0,                     !- Hour 5
    4.0,                     !- Hour 6
    4.0,                     !- Hour 7
    4.0,                     !- Hour 8
    4.0,                     !- Hour 9
    4.0,                     !- Hour 10
    4.0,                     !- Hour 11
    4.0,                     !- Hour 12
    4.0,                     !- Hour 13
    4.0,                     !- Hour 14
    4.0,                     !- Hour 15
    4.0,                     !- Hour 16
    4.0,                     !- Hour 17
    4.0,                     !- Hour 18
    4.0,                     !- Hour 19
    4.0,                     !- Hour 20
    4.0,                     !- Hour 21
    4.0,                     !- Hour 22
    4.0,                     !- Hour 23
    4.0;                     !- Hour 24

  Schedule:Day:Hourly,
    Winter Control Type Day Sch,  !- Name
    Control Type,            !- Schedule Type Limits Name
    4.0,                     !- Hour 1
    4.0,                     !- Hour 2
    4.0,                     !- Hour 3
    4.0,                     !- Hour 4
    4.0,                     !- Hour 5
    4.0,                     !- Hour 6
    4.0,                     !- Hour 7
    4.0,                     !- Hour 8
    4.0,                     !- Hour 9
    4.0,                     !- Hour 10
    4.0,                     !- Hour 11
    4.0,                     !- Hour 12
    4.0,                     !- Hour 13
    4.0,                     !- Hour 14
    4.0,                     !- Hour 15
    4.0,                     !- Hour 16
    4.0,                     !- Hour 17
    4.0,                     !- Hour 18
    4.0,                     !- Hour 19
    4.0,                     !- Hour 20
    4.0,                     !- Hour 21
    4.0,                     !- Hour 22
    4.0,                     !- Hour 23
    4.0;                     !- Hour 24

  Schedule:Day:Hourly,
    Summer Control Type Day Sch - cool,  !- Name
    Control Type,            !- Schedule Type Limits Name
    2.0,                     !- Hour 1
    2.0,                     !- Hour 2
    2.0,                     !- Hour 3
    2.0,                     !- Hour 4
    2.0,                     !- Hour 5
    2.0,                     !- Hour 6
    2.0,                     !- Hour 7
    2.0,                     !- Hour 8
    2.0,                     !- Hour 9
    2.0,                     !- Hour 10
    2.0,                     !- Hour 11
    2.0,                     !- Hour 12
    2.0,                     !- Hour 13
    2.0,                     !- Hour 14
    2.0,                     !- Hour 15
    2.0,                     !- Hour 16
    2.0,                     !- Hour 17
    2.0,                     !- Hour 18
    2.0,                     !- Hour 19
    2.0,                     !- Hour 20
    2.0,                     !- Hour 21
    2.0,                     !- Hour 22
    2.0,                     !- Hour 23
    2.0;                     !- Hour 24

  Schedule:Day:Hourly,
    Winter Control Type Day Sch - heat,  !- Name
    Control Type,            !- Schedule Type Limits Name
    1.0,                     !- Hour 1
    1.0,                     !- Hour 2
    1.0,                     !- Hour 3
    1.0,                     !- Hour 4
    1.0,                     !- Hour 5
    1.0,                     !- Hour 6
    1.0,                     !- Hour 7
    1.0,                     !- Hour 8
    1.0,                     !- Hour 9
    1.0,                     !- Hour 10
    1.0,                     !- Hour 11
    1.0,                     !- Hour 12
    1.0,                     !- Hour 13
    1.0,                     !- Hour 14
    1.0,                     !- Hour 15
    1.0,                     !- Hour 16
    1.0,                     !- Hour 17
    1.0,                     !- Hour 18
    1.0,                     !- Hour 19
    1.0,                     !- Hour 20
    1.0,                     !- Hour 21
    1.0,                     !- Hour 22
    1.0,                     !- Hour 23
    1.0;                     !- Hour 24

  Schedule:Day:Interval,
    11,                      !- Name
    Any number,              !- Schedule Type Limits Name
    No,                      !- Interpolate to Timestep
    24:00,                   !- Time 1
    0;                       !- Value Until Time 1

  Schedule:Day:Interval,
    10004,                   !- Name
    Any number,              !- Schedule Type Limits Name
    No,                      !- Interpolate to Timestep
    8:00,                    !- Time 1
    0,                       !- Value Until Time 1
    18:00,                   !- Time 2
    1,                       !- Value Until Time 2
    24:00,                   !- Time 3
    0;                       !- Value Until Time 3

  Schedule:Day:Interval,
    11_-50_12_22,            !- Name
    Any number,              !- Schedule Type Limits Name
    No,                      !- Interpolate to Timestep
    24:00,                   !- Time 1
    -50;                     !- Value Until Time 1

  Schedule:Day:Interval,
    11_0_1_1,                !- Name
    Any number,              !- Schedule Type Limits Name
    No,                      !- Interpolate to Timestep
    24:00,                   !- Time 1
    0;                       !- Value Until Time 1

  Schedule:Day:Interval,
    11_100_28_24,            !- Name
    Any number,              !- Schedule Type Limits Name
    No,                      !- Interpolate to Timestep
    24:00,                   !- Time 1
    100;                     !- Value Until Time 1

  Schedule:Day:Interval,
    10004_-50_12_21,         !- Name
    Any number,              !- Schedule Type Limits Name
    No,                      !- Interpolate to Timestep
    8:00,                    !- Time 1
    12,                      !- Value Until Time 1
    18:00,                   !- Time 2
    21,                      !- Value Until Time 2
    24:00,                   !- Time 3
    12;                      !- Value Until Time 3

  Schedule:Day:Interval,
    11_-50_12_21,            !- Name
    Any number,              !- Schedule Type Limits Name
    No,                      !- Interpolate to Timestep
    24:00,                   !- Time 1
    -50;                     !- Value Until Time 1

  Schedule:Day:Interval,
    10004_0_1_1,             !- Name
    Any number,              !- Schedule Type Limits Name
    No,                      !- Interpolate to Timestep
    8:00,                    !- Time 1
    1,                       !- Value Until Time 1
    18:00,                   !- Time 2
    1,                       !- Value Until Time 2
    24:00,                   !- Time 3
    1;                       !- Value Until Time 3

  Schedule:Day:Interval,
    10004_100_28_25,         !- Name
    Any number,              !- Schedule Type Limits Name
    No,                      !- Interpolate to Timestep
    8:00,                    !- Time 1
    28,                      !- Value Until Time 1
    18:00,                   !- Time 2
    25,                      !- Value Until Time 2
    24:00,                   !- Time 3
    28;                      !- Value Until Time 3

  Schedule:Day:Interval,
    11_100_28_25,            !- Name
    Any number,              !- Schedule Type Limits Name
    No,                      !- Interpolate to Timestep
    24:00,                   !- Time 1
    100;                     !- Value Until Time 1

  Schedule:Day:Interval,
    11_-50_12_18,            !- Name
    Any number,              !- Schedule Type Limits Name
    No,                      !- Interpolate to Timestep
    24:00,                   !- Time 1
    -50;                     !- Value Until Time 1

  Schedule:Day:List,
    1,                       !- Name
    Any number,              !- Schedule Type Limits Name
    No,                      !- Interpolate to Timestep
    60,                      !- Minutes per Item
    0,                       !- Value 1
    0,                       !- <none>
    0,                       !- <none>
    0,                       !- <none>
    0,                       !- <none>
    0,                       !- <none>
    0,                       !- <none>
    0,                       !- <none>
    1,                       !- <none>
    1,                       !- <none>
    1,                       !- <none>
    1,                       !- <none>
    1,                       !- <none>
    1,                       !- <none>
    1,                       !- <none>
    1,                       !- <none>
    1,                       !- <none>
    1,                       !- <none>
    0,                       !- <none>
    0,                       !- <none>
    0,                       !- <none>
    0,                       !- <none>
    0,                       !- <none>
    0;                       !- <none>

  Schedule:Day:List,
    10000,                   !- Name
    Any number,              !- Schedule Type Limits Name
    No,                      !- Interpolate to Timestep
    60,                      !- Minutes per Item
    0,                       !- Value 1
    0,                       !- <none>
    0,                       !- <none>
    0,                       !- <none>
    0,                       !- <none>
    0,                       !- <none>
    .55,                     !- <none>
    .85,                     !- <none>
    .85,                     !- <none>
    .1,                      !- <none>
    .1,                      !- <none>
    .55,                     !- <none>
    .85,                     !- <none>
    .1,                      !- <none>
    .1,                      !- <none>
    .1,                      !- <none>
    .1,                      !- <none>
    .1,                      !- <none>
    .55,                     !- <none>
    .85,                     !- <none>
    .1,                      !- <none>
    .1,                      !- <none>
    .1,                      !- <none>
    0;                       !- <none>

  Schedule:Day:List,
    10001,                   !- Name
    Any number,              !- Schedule Type Limits Name
    No,                      !- Interpolate to Timestep
    60,                      !- Minutes per Item
    0,                       !- Value 1
    0,                       !- <none>
    0,                       !- <none>
    0,                       !- <none>
    0,                       !- <none>
    0,                       !- <none>
    .15,                     !- <none>
    .7,                      !- <none>
    .7,                      !- <none>
    .15,                     !- <none>
    .15,                     !- <none>
    .15,                     !- <none>
    .7,                      !- <none>
    .7,                      !- <none>
    .15,                     !- <none>
    .15,                     !- <none>
    .15,                     !- <none>
    .45,                     !- <none>
    .45,                     !- <none>
    .7,                      !- <none>
    .45,                     !- <none>
    .15,                     !- <none>
    0,                       !- <none>
    0;                       !- <none>

  Schedule:Day:List,
    10002,                   !- Name
    Any number,              !- Schedule Type Limits Name
    No,                      !- Interpolate to Timestep
    60,                      !- Minutes per Item
    1,                       !- Value 1
    1,                       !- <none>
    1,                       !- <none>
    1,                       !- <none>
    1,                       !- <none>
    1,                       !- <none>
    .2,                      !- <none>
    .2,                      !- <none>
    .2,                      !- <none>
    .15,                     !- <none>
    .15,                     !- <none>
    .15,                     !- <none>
    .15,                     !- <none>
    .15,                     !- <none>
    .15,                     !- <none>
    .15,                     !- <none>
    .15,                     !- <none>
    .2,                      !- <none>
    .2,                      !- <none>
    .2,                      !- <none>
    1,                       !- <none>
    1,                       !- <none>
    1,                       !- <none>
    1;                       !- <none>

  Schedule:Day:List,
    10003,                   !- Name
    Any number,              !- Schedule Type Limits Name
    No,                      !- Interpolate to Timestep
    60,                      !- Minutes per Item
    1,                       !- Value 1
    1,                       !- <none>
    1,                       !- <none>
    1,                       !- <none>
    1,                       !- <none>
    1,                       !- <none>
    1,                       !- <none>
    1,                       !- <none>
    1,                       !- <none>
    1,                       !- <none>
    1,                       !- <none>
    1,                       !- <none>
    .45,                     !- <none>
    .45,                     !- <none>
    .45,                     !- <none>
    .45,                     !- <none>
    .45,                     !- <none>
    .2,                      !- <none>
    .2,                      !- <none>
    .2,                      !- <none>
    1,                       !- <none>
    1,                       !- <none>
    1,                       !- <none>
    1;                       !- <none>

  Schedule:Day:List,
    10005,                   !- Name
    Any number,              !- Schedule Type Limits Name
    No,                      !- Interpolate to Timestep
    60,                      !- Minutes per Item
    0,                       !- Value 1
    0,                       !- <none>
    0,                       !- <none>
    0,                       !- <none>
    0,                       !- <none>
    0,                       !- <none>
    0,                       !- <none>
    0,                       !- <none>
    1,                       !- <none>
    1,                       !- <none>
    1,                       !- <none>
    1,                       !- <none>
    1,                       !- <none>
    1,                       !- <none>
    1,                       !- <none>
    1,                       !- <none>
    1,                       !- <none>
    1,                       !- <none>
    0,                       !- <none>
    0,                       !- <none>
    0,                       !- <none>
    0,                       !- <none>
    0,                       !- <none>
    0;                       !- <none>

  Schedule:Day:List,
    10003_-50_12_22,         !- Name
    Any number,              !- Schedule Type Limits Name
    No,                      !- Interpolate to Timestep
    60,                      !- Minutes per Item
    22,                      !- Value 1
    22,                      !- <none>
    22,                      !- <none>
    22,                      !- <none>
    22,                      !- <none>
    22,                      !- <none>
    22,                      !- <none>
    22,                      !- <none>
    22,                      !- <none>
    22,                      !- <none>
    22,                      !- <none>
    22,                      !- <none>
    12,                      !- <none>
    12,                      !- <none>
    12,                      !- <none>
    12,                      !- <none>
    12,                      !- <none>
    12,                      !- <none>
    12,                      !- <none>
    12,                      !- <none>
    22,                      !- <none>
    22,                      !- <none>
    22,                      !- <none>
    22;                      !- <none>

  Schedule:Day:List,
    10002_-50_12_22,         !- Name
    Any number,              !- Schedule Type Limits Name
    No,                      !- Interpolate to Timestep
    60,                      !- Minutes per Item
    22,                      !- Value 1
    22,                      !- <none>
    22,                      !- <none>
    22,                      !- <none>
    22,                      !- <none>
    22,                      !- <none>
    12,                      !- <none>
    12,                      !- <none>
    12,                      !- <none>
    12,                      !- <none>
    12,                      !- <none>
    12,                      !- <none>
    12,                      !- <none>
    12,                      !- <none>
    12,                      !- <none>
    12,                      !- <none>
    12,                      !- <none>
    12,                      !- <none>
    12,                      !- <none>
    12,                      !- <none>
    22,                      !- <none>
    22,                      !- <none>
    22,                      !- <none>
    22;                      !- <none>

  Schedule:Day:List,
    10003_0_1_1,             !- Name
    Any number,              !- Schedule Type Limits Name
    No,                      !- Interpolate to Timestep
    60,                      !- Minutes per Item
    1,                       !- Value 1
    1,                       !- <none>
    1,                       !- <none>
    1,                       !- <none>
    1,                       !- <none>
    1,                       !- <none>
    1,                       !- <none>
    1,                       !- <none>
    1,                       !- <none>
    1,                       !- <none>
    1,                       !- <none>
    1,                       !- <none>
    1,                       !- <none>
    1,                       !- <none>
    1,                       !- <none>
    1,                       !- <none>
    1,                       !- <none>
    1,                       !- <none>
    1,                       !- <none>
    1,                       !- <none>
    1,                       !- <none>
    1,                       !- <none>
    1,                       !- <none>
    1;                       !- <none>

  Schedule:Day:List,
    10002_0_1_1,             !- Name
    Any number,              !- Schedule Type Limits Name
    No,                      !- Interpolate to Timestep
    60,                      !- Minutes per Item
    1,                       !- Value 1
    1,                       !- <none>
    1,                       !- <none>
    1,                       !- <none>
    1,                       !- <none>
    1,                       !- <none>
    1,                       !- <none>
    1,                       !- <none>
    1,                       !- <none>
    1,                       !- <none>
    1,                       !- <none>
    1,                       !- <none>
    1,                       !- <none>
    1,                       !- <none>
    1,                       !- <none>
    1,                       !- <none>
    1,                       !- <none>
    1,                       !- <none>
    1,                       !- <none>
    1,                       !- <none>
    1,                       !- <none>
    1,                       !- <none>
    1,                       !- <none>
    1;                       !- <none>

  Schedule:Day:List,
    10003_100_28_24,         !- Name
    Any number,              !- Schedule Type Limits Name
    No,                      !- Interpolate to Timestep
    60,                      !- Minutes per Item
    24,                      !- Value 1
    24,                      !- <none>
    24,                      !- <none>
    24,                      !- <none>
    24,                      !- <none>
    24,                      !- <none>
    24,                      !- <none>
    24,                      !- <none>
    24,                      !- <none>
    24,                      !- <none>
    24,                      !- <none>
    24,                      !- <none>
    28,                      !- <none>
    28,                      !- <none>
    28,                      !- <none>
    28,                      !- <none>
    28,                      !- <none>
    28,                      !- <none>
    28,                      !- <none>
    28,                      !- <none>
    24,                      !- <none>
    24,                      !- <none>
    24,                      !- <none>
    24;                      !- <none>

  Schedule:Day:List,
    10002_100_28_24,         !- Name
    Any number,              !- Schedule Type Limits Name
    No,                      !- Interpolate to Timestep
    60,                      !- Minutes per Item
    24,                      !- Value 1
    24,                      !- <none>
    24,                      !- <none>
    24,                      !- <none>
    24,                      !- <none>
    24,                      !- <none>
    28,                      !- <none>
    28,                      !- <none>
    28,                      !- <none>
    28,                      !- <none>
    28,                      !- <none>
    28,                      !- <none>
    28,                      !- <none>
    28,                      !- <none>